*
*$ model description: "awb2sc1815" from pspice lib 17.2
*b Device model created by analog_uprev for 2sc1815 on Fri Feb  2 18:03:16 IST 2001
.model QC1815 npn
+ (
*+ IC_VBE=1.10250E-36
*+ IC_VCE=1.10250E-36
*+ STATE=1
+ TEMP=0
+ AREA=1.0
*+ STATE_FACTOR=0
+ IS=4.209e-14
+ BF=440.
+ NF=1.00
+ VAF=98.3
+ IKF=0.731
+ ISE=4.348e-15
+ NE=1.36
+ BR=25.4
+ NR=1.00
+ VAR=10.0
+ IKR=9.663e-02
+ ISC=3.094e-14
+ NC=1.11
+ RB=10.0
+ IRB=1.000e-04
+ RBM=1.00
+ RE=0.834
+ RC=3.11
+ CJE=1.690e-11
+ VJE=0.654
+ MJE=0.386
+ TF=3.628e-10
+ XTF=1.617e04
+ VTF=0.118
+ ITF=0.415
+ PTF=0
+ CJC=7.476e-12
+ VJC=0.300
+ MJC=0.322
+ XCJC=1.00
+ TR=23E-9
+ CJS=0
+ VJS=0.7
+ MJS=0.5
+ XTB=1.235
+ EG=1.11
+ XTI=3.0
+ KF=0
+ AF=1
+ FC=0.5
+)
*$ end model description: "awb2sc1815"
*
*
