.model DS1588 D  (IS=4.4E-14
+                 IKF=10m BV=30 
+                 RS=3.8 CJO=1p TT=1n
+)