.model DS1588 D  (IS=4.4E-14
+                 IKF=10m BV=30 
+                 RS=3.8 CJO=1p TT=1n
+)

*05AZ6.2 (VZ=6.2V, IZ=20mA,P=500mW)
.model DZ6_2 D (IS=1E-15 BV=5.8
+               RS=2 CJO=120p TT=1u
+)