*

.SUBCKT OPAMP3 NI INV OUT CMP VCC VEE
R1 VCC 1 30K
R2 CMP VEE 3.9K
R3 VCC OUT 2.2K
Q1 CMP NI 1 QA872A
Q2 VEE INV 1 QA872A
Q3 OUT CMP VEE QC1815 
.ENDS


.SUBCKT OPAMP5 NI INV OUT CMP VCC VEE

.ENDS