EESchema Schematic File Version 4
EELAYER 29 0
EELAYER END
$Descr A4 11693 8268
encoding utf-8
Sheet 1 1
Title ""
Date ""
Rev ""
Comp ""
Comment1 ""
Comment2 ""
Comment3 ""
Comment4 ""
$EndDescr
Wire Wire Line
	4900 4150 4900 4350
$Comp
L pspice:0 #GND01
U 1 1 5EE43933
P 4900 4350
F 0 "#GND01" H 4900 4250 50  0001 C CNN
F 1 "0" H 4900 4439 50  0000 C CNN
F 2 "" H 4900 4350 50  0001 C CNN
F 3 "~" H 4900 4350 50  0001 C CNN
	1    4900 4350
	1    0    0    -1  
$EndComp
$Comp
L pspice:VSOURCE V1
U 1 1 5EE41AD2
P 4900 3850
F 0 "V1" H 5128 3896 50  0000 L CNN
F 1 "dc 0 ac 1" H 5128 3805 50  0000 L CNN
F 2 "" H 4900 3850 50  0001 C CNN
F 3 "~" H 4900 3850 50  0001 C CNN
	1    4900 3850
	1    0    0    -1  
$EndComp
$Comp
L pspice:0 #GND02
U 1 1 5F3BC5FD
P 6150 4400
F 0 "#GND02" H 6150 4300 50  0001 C CNN
F 1 "0" H 6150 4489 50  0000 C CNN
F 2 "" H 6150 4400 50  0001 C CNN
F 3 "~" H 6150 4400 50  0001 C CNN
	1    6150 4400
	1    0    0    -1  
$EndComp
$Comp
L pspice:R R1
U 1 1 5F3BDB87
P 5600 3200
F 0 "R1" V 5395 3200 50  0000 C CNN
F 1 "10k" V 5486 3200 50  0000 C CNN
F 2 "" H 5600 3200 50  0001 C CNN
F 3 "~" H 5600 3200 50  0001 C CNN
	1    5600 3200
	0    1    1    0   
$EndComp
$Comp
L pspice:C C1
U 1 1 5F3C03BE
P 6150 3850
F 0 "C1" H 6328 3896 50  0000 L CNN
F 1 "0.1u" H 6328 3805 50  0000 L CNN
F 2 "" H 6150 3850 50  0001 C CNN
F 3 "~" H 6150 3850 50  0001 C CNN
	1    6150 3850
	1    0    0    -1  
$EndComp
Wire Wire Line
	6150 4100 6150 4400
Wire Wire Line
	5850 3200 6150 3200
Wire Wire Line
	6150 3600 6150 3200
Connection ~ 6150 3200
Wire Wire Line
	5350 3200 4900 3200
Wire Wire Line
	4900 3200 4900 3550
Text GLabel 4500 3200 0    50   Input ~ 0
IN
Text GLabel 6950 3200 2    50   Input ~ 0
OUT
Wire Wire Line
	4500 3200 4900 3200
Connection ~ 4900 3200
Text Notes 4600 4600 0    50   ~ 0
.ac dec 10 1 100k
Wire Wire Line
	6150 3200 6950 3200
$EndSCHEMATC
